Replication/results/database/7_BranchFlow_DG_out.csv
From node,To node,Branch,I a (A),I b (A),I c (A),P (kW),Q (kvar),Loss (kW),Active power flows
SubstationHV,650,TrSubstation (transformer),+18.6,+20.7,+23.3,+3618.2,+2003.3,35.15,SubstationHV -> 650
650,RG60,Vreg A+B+C (regulator),+592.7,+431.9,+628.1,+3583.0,+1722.0,0.00,650 -> RG60
RG60,632,LOHL650-632 (line),+557.9,+411.3,+587.7,+3583.0,+1722.0,59.50,RG60 -> 632
632,633,LOHL632-633 (line),+81.0,+60.6,+62.8,+406.3,+301.1,0.91,632 -> 633
632,645,LOHL632-645 (line),-,+143.1,+66.1,+420.9,+269.8,3.38,632 -> 645
632,nDL1,LOHL632-671start (line),+478.1,+212.2,+475.7,+2696.3,+958.1,6.47,632 -> nDL1
633,634,XFM-1 (transformer),+81.0,+60.6,+62.8,+405.4,+299.9,5.40,633 -> 634
645,646,LOHL645-646 (line),-,+66.1,+66.1,+247.6,+142.2,0.56,645 -> 646
nDL1,nDL2,s2LOHL632-671 (line),+476.5,+206.5,+464.8,+2649.8,+914.5,6.28,nDL1 -> nDL2
nDL2,nDL,s3LOHL632-671 (line),+474.9,+200.8,+453.8,+2603.5,+871.4,6.10,nDL2 -> nDL
nDL,nDL4,s4LOHL632-671 (line),+473.3,+195.2,+442.9,+2557.4,+829.0,5.93,nDL -> nDL4
nDL,DL,LDL (line),+1.6,+6.0,+11.3,+40.0,+23.2,0.00,nDL -> DL
nDL4,nDL5,s5LOHL632-671 (line),+471.6,+189.6,+431.8,+2511.5,+787.0,5.76,nDL4 -> nDL5
nDL5,671,LOHL632-671end (line),+470.0,+184.0,+420.8,+2465.7,+745.6,5.61,nDL5 -> 671
671,684,LOHL671-684 (line),+63.0,-,+71.1,+290.0,+67.1,0.58,671 -> 684
671,680,LOHL671-680 (line),0.0,0.0,0.0,+0.0,-0.0,0.00,no flow
671,692,Switch (switch),+229.7,+71.5,+178.8,+1015.1,+0.7,0.00,671 -> 692
684,652,LC684-652A (line),+63.0,-,-,+123.9,+82.9,0.72,684 -> 652
684,611,LOHL684-611 (line),-,-,+71.1,+165.5,-16.3,0.39,684 -> 611
692,675,LC692-675 (line),+205.9,+71.5,+124.5,+847.4,-148.3,4.38,692 -> 675
692,DG,2-Winding Transformer (transformer),0.0,0.0,0.0,+0.0,+0.0,0.00,no flow
